Version 4
SHEET 1 944 680
WIRE 0 -16 -112 -16
WIRE 128 -16 80 -16
WIRE 272 -16 208 -16
WIRE 384 -16 272 -16
WIRE -112 80 -112 -16
WIRE 272 96 272 -16
WIRE -112 208 -112 160
WIRE -48 208 -112 208
WIRE -112 256 -112 208
WIRE -48 256 -48 208
WIRE 0 256 -48 256
WIRE 128 256 80 256
WIRE 272 256 272 160
WIRE 272 256 208 256
FLAG 384 -16 Out
IOPIN 384 -16 Out
FLAG -112 256 0
SYMBOL ind -16 0 R270
WINDOW 0 32 56 VTop 2
WINDOW 3 5 56 VBottom 2
SYMATTR InstName L1
SYMATTR Value 300n
SYMBOL cap 256 96 R0
SYMATTR InstName C1
SYMATTR Value 47p
SYMBOL ind -16 272 R270
WINDOW 0 32 56 VTop 2
WINDOW 3 5 56 VBottom 2
SYMATTR InstName 1n
SYMATTR Value 100n
SYMBOL voltage -112 64 R0
WINDOW 123 24 124 Left 2
WINDOW 39 0 0 Left 0
SYMATTR InstName V1
SYMATTR Value ""
SYMATTR Value2 AC 1
SYMBOL res 224 -32 R90
WINDOW 0 0 56 VBottom 2
WINDOW 3 32 56 VTop 2
SYMATTR InstName R1
SYMATTR Value 50
SYMBOL res 224 240 R90
WINDOW 0 0 56 VBottom 2
WINDOW 3 32 56 VTop 2
SYMATTR InstName R2
SYMATTR Value 50
TEXT 54 328 Left 2 !.ac oct 100 1 100000000
